&HEAD CHID='Coupled7_6'/

# GRID

# size of each mesh, edge to edge 
# 9 cpu
&MESH IJK=20,20,60, XB=0.0,20.0,  0.0,20.0,  0,60,  MULT_ID='mesh_fire' /
&MULT ID='mesh_fire', DX=20, DY=20, DZ=60., I_UPPER=2, J_UPPER=2, K_UPPER=0/


&TIME T_END=600,LOCK_TIME_STEP=F, DT=1 /

#&TIME T_END=60, DT=1 /



&WIND SPEED=5,  DIRECTION=180., L=-500., Z_0=0.03 /



#south - open - forced
&VENT XB=0.,60.,0.,0.,0.,60.,SURF_ID='OPEN'/ 


#north - open
&VENT XB=0.,60.,60.,60.,0.,60.,SURF_ID='OPEN'/

#east - closed
#&VENT XB=60.,60.,0.,60.,0.,60.,SURF_ID='OPEN'/

#west - closed
#&VENT XB=0.,0.,0.,60.,0.,60.,SURF_ID='OPEN',N_EDDY=-1/


#roof
&VENT MB='ZMAX', SURF_ID='OPEN' /

#convective flux
#&VENT XB=0.,60.,0.,60.,0.,0., SURF_ID='surface' /
#&SURF ID='surface',   CONVECTIVE_HEAT_FLUX=0.36 /

&DUMP DT_PL3D=1, DT_HRR =0, SIG_FIGS=4, SIG_FIGS_EXP=2 , WRITE_XYZ=T /

&MISC SIMULATION_MODE='SVLES'/
&MISC VERBOSE=T, TMPA=20/




&TAIL /
