&HEAD CHID='Coupled7_3n'/

# GRID

# size of each mesh, edge to edge 
# 9 cpu
&MESH IJK=20,20,60, XB=0.0,20.0,  0.0,20.0,  0,60,  MULT_ID='mesh_fire' /
&MULT ID='mesh_fire', DX=20, DY=20, DZ=60., I_UPPER=2, J_UPPER=2, K_UPPER=0/

#



#For instanteneous IC field:
# TIME

&TIME T_END=600,LOCK_TIME_STEP=F, DT=1 /

#&TIME T_END=60, DT=1 /


#character(13)
#&ICCD ICFile='ic_palm_72.nc', OBFile='bc_test_02.nc' /

&WIND SPEED=5,  DIRECTION=180., L=-500., Z_0=0.03 /

# Boundary Conditions:
#  VT%N_EDDY
#  IF (VT%N_EDDY>0) SYNTHETIC_EDDY_METHOD=.TRUE.



#south - coupled
#&VENT XB=0.,60.,0.,0.,0.,60.,SURF_ID='OPEN',N_EDDY=-1/ 

&VENT XB=0.,60.,0.,0.,0.,60.,SURF_ID='OPEN'/ 

#north
&VENT XB=0.,60.,60.,60.,0.,60.,SURF_ID='OPEN'/

#east
#&VENT XB=60.,60.,0.,60.,0.,60.,SURF_ID='OPEN',N_EDDY=-1/

#west
#&VENT XB=0.,0.,0.,60.,0.,60.,SURF_ID='OPEN',N_EDDY=-1/


#roof
&VENT MB='ZMAX', SURF_ID='OPEN' /

#convective flux
#&VENT XB=0.,60.,0.,60.,0.,0., SURF_ID='surface' /
#&SURF ID='surface',   CONVECTIVE_HEAT_FLUX=0.36 /

&DUMP DT_PL3D=1, DT_HRR =0, SIG_FIGS=4, SIG_FIGS_EXP=2 , WRITE_XYZ=T /

&MISC SIMULATION_MODE='SVLES'/
&MISC VERBOSE=T, TMPA=20/




&TAIL /
