&HEAD CHID='Coupled0'/

# GRID
#&MESH IJK=60,60,20, XB=0.,960., 0.,960., 0.,180. /

&MESH IJK=20,20,20, XB=0.0,320.0,0.0, 320.0,0,180, MULT_ID='mesh_fire' /
&MULT ID='mesh_fire', DX=320, DY=320, DZ=180., I_UPPER=2, J_UPPER=2, K_UPPER=0/

#For mean IC field:
# TIME
&TIME T_END=360/

&VENT MB='ZMAX', SURF_ID='OPEN' /
&VENT MB='XMIN', SURF_ID='OPEN'/
&VENT MB='XMAX', SURF_ID='OPEN' /
&VENT MB='YMIN', SURF_ID='OPEN'/
&VENT MB='YMAX', SURF_ID='OPEN' /


&WIND SPEED=4.8, DIRECTION=270., L=-500., Z_0=0.03 /

&DUMP DT_PL3D=1,  WRITE_XYZ=T /




# WHAT IS THE PHYSICS/CHEMISTRY SETTING
# level set 4 - wind and fire are fully coupled
# Simple very large eddy simulation
#&MISC SIMULATION_MODE='SVLES', LEVEL_SET_MODE=4 /



# FIRE STUFF

#Grass Fire
#&MISC SIMULATION_MODE='SVLES', LEVEL_SET_MODE=4 /
#&REAC FUEL='FUEL VAPOR', C=3.4, H=6.2, O=2.5, SOOT_YIELD=0.02, HEAT_OF_COMBUSTION=17700. /
#&SURF ID='IGNITION', VEG_LSET_IGNITE_TIME=0, VEG_LSET_FUEL_INDEX=1 /
#&SURF ID='LINE', VEG_LSET_ROS_00 = 1./
#&VENT XB=16.,80.,  448.,512.,  0.,0., SURF_ID='IGNITION' /
#&VENT XB=16.,80.,  448.,512.,  0.,0., SURF_ID='LINE' /
#&VENT XB=16.,80.,  448.,512.,  0.,0., SURF_ID='LINE' /
#&VENT XB=80.,900.,  16.,944.,  0.,0., SURF_ID='Tall Grass' /
#&SURF ID                        = 'Tall Grass'
#      VEG_LSET_FUEL_INDEX       = 3
#      VEG_LSET_M1               = 0.058 /



 
#Crown Fire
&MISC SIMULATION_MODE='SVLES'/
&REAC FUEL='FUEL VAPOR', C=3.4, H=6.2, O=2.5, SOOT_YIELD=0.02, HEAT_OF_COMBUSTION=17700. /
&SURF ID='FIRE', HRRPUA=1250, COLOR='RED' RAMP_Q='HRR' /
&VENT XB= 440,520,40,920,0,0, SURF_ID='FIRE' /
&RAMP ID='HRR', T=0.0, F=0.0 /
&RAMP ID='HRR', T=3, F=1.0 /
&RAMP ID='HRR', T=300, F=1.0 /


&MISC VERBOSE=T /




&TAIL /
