&HEAD CHID='Level_Set_2m'/

&MESH IJK=30,30,20, XB=-20.0,220,-120.0,120.0,0.0,200 /

&TIME T_END=3600/

&MISC SIMULATION_MODE='SVLES', LEVEL_SET_MODE=4 /

&WIND SPEED=4.8, DIRECTION=270., L=-500., Z_0=0.03 /

&REAC FUEL='FUEL VAPOR', C=3.4, H=6.2, O=2.5, SOOT_YIELD=0.02, HEAT_OF_COMBUSTION=17700. /

&SURF ID='IGNITION', VEG_LSET_IGNITE_TIME=0/
&SURF ID='LINE', VEG_LSET_ROS_00 = 1./


&VENT XB=-10.0,0.0,-5., 5.,0.,0., SURF_ID='IGNITION' /
&VENT XB=-10.0,0.0,-90.,-5.,0.,0., SURF_ID='LINE' /
&VENT XB=-10,0.0, 5.,90.,0.,0., SURF_ID='LINE' /
&VENT XB= 0.0,200.0,-100.,100.,0.,0., SURF_ID='Tall Grass' /

&VENT MB='XMIN', SURF_ID='OPEN' /
&VENT MB='XMAX', SURF_ID='OPEN' /
&VENT MB='YMIN', SURF_ID='OPEN' /
&VENT MB='YMAX', SURF_ID='OPEN' /
&VENT MB='ZMAX', SURF_ID='OPEN' /


&SURF ID                        = 'Tall Grass'
      VEG_LSET_FUEL_INDEX       = 3
      VEG_LSET_M1               = 0.058 /

&DUMP DT_HRR=60., DT_PL3D=60, SIG_FIGS=4, SIG_FIGS_EXP=2, WRITE_XYZ=T  /




&TAIL /
