&HEAD CHID='Palm2_2'/

# GRID

# size of each mesh, edge to edge 



#40 cpu
&MESH IJK=25,25,200, XB=0,500,  0,500,  0,1000,  MULT_ID='mesh_fire' /
&MULT ID='mesh_fire', DX=500, DY=500, DZ=1000., I_UPPER=19, J_UPPER=1, K_UPPER=0/


# TIME - 4 hours
&TIME T_END=14400,LOCK_TIME_STEP=F, DT=1 /

&WIND SPEED=4.8,  DIRECTION=270., L=-500., Z_0=0.03 /

&VENT MB='ZMAX', SURF_ID='OPEN' /

#east
&VENT XB=10000.,10000., 0.,1000., 0.,1000.,SURF_ID='OPEN'/

#west
&VENT XB=0.,0., 0.,1000., 0.,1000.,SURF_ID='OPEN' /


#fire
&MISC SIMULATION_MODE='SVLES'/
#&REAC FUEL='FUEL VAPOR', C=3.4, H=6.2, O=2.5, SOOT_YIELD=0.02, HEAT_OF_COMBUSTION=17700. /
#I=100,000 kW/m  / width=100m
#&SURF ID='FIRE', HRRPUA=1000, COLOR='RED' RAMP_Q='HRR' /

#box 100x100 in the east of long domain
#&VENT XB= 100,200,450,550,0,0, SURF_ID='FIRE' /

#&RAMP ID='HRR', T=0.0, F=0.0 /
#&RAMP ID='HRR', T=3, F=1.0 /
#&RAMP ID='HRR', T=14400, F=1.0 /

&DUMP DT_PL3D=60, DT_HRR =60, SIG_FIGS=4, SIG_FIGS_EXP=2 , WRITE_XYZ=T /

&MISC VERBOSE=T, TMPA=20/




&TAIL /
