&HEAD CHID='Palm2_1'/

# GRID

# size of each mesh, edge to edge 


# 128 cpu
#&MESH IJK=160,32,256, XB=0.0,640.0,  0.0,128.0,  0,1024,  MULT_ID='mesh_fire' /
#&MULT ID='mesh_fire', DX=640, DY=128, DZ=1024., I_UPPER=15, J_UPPER=7, K_UPPER=0/

#16 cpu
&MESH IJK=320,128,256, XB=0,1280,  0,512,  0,1024,  MULT_ID='mesh_fire' /
&MULT ID='mesh_fire', DX=1280, DY=512, DZ=1024., I_UPPER=7, J_UPPER=1, K_UPPER=0/


# TIME - 4 hours
&TIME T_END=14400,LOCK_TIME_STEP=F, DT=1 /

&WIND SPEED=4.8,  DIRECTION=270., L=-500., Z_0=0.03 /

&VENT MB='ZMAX', SURF_ID='OPEN' /

#east
&VENT XB=10240.,10240., 0.,1024., 0.,1024.,SURF_ID='OPEN'/

#west
&VENT XB=0.,0., 0.,1024., 0.,1014.,SURF_ID='OPEN' /


#fire
&MISC SIMULATION_MODE='SVLES'/
&REAC FUEL='FUEL VAPOR', C=3.4, H=6.2, O=2.5, SOOT_YIELD=0.02, HEAT_OF_COMBUSTION=17700. /
#I=100,000 kW/m  / width=100m
&SURF ID='FIRE', HRRPUA=1000, COLOR='RED' RAMP_Q='HRR' /

#box 100x100 in the east of long domain
&VENT XB= 100,200,452,552,0,0, SURF_ID='FIRE' /

&RAMP ID='HRR', T=0.0, F=0.0 /
&RAMP ID='HRR', T=3, F=1.0 /
&RAMP ID='HRR', T=14400, F=1.0 /

&DUMP DT_PL3D=60, DT_HRR =60, SIG_FIGS=4, SIG_FIGS_EXP=2 , WRITE_XYZ=T /

&MISC VERBOSE=T, TMPA=20/




&TAIL /
