&HEAD CHID='Coupled4'/

# GRID
# NX NY NZ (counted from zero, so there's NX+2 tacer cells in each mesh) 
# x1 x2 y1 y2 z1 z2 (not tracer cell coordinates! take dx/2 and add to corner of global grid)
&MESH IJK=20,20,10, XB=0.0,100.0,0.0, 100.0,0,120/ # MULT_ID='mesh_fire' /
#&MULT ID='mesh_fire', DX=100, DY=100, DZ=120., I_UPPER=1, J_UPPER=1, K_UPPER=0/




#For instanteneous IC field:
# TIME

&TIME T_END=60,LOCK_TIME_STEP=F, DT=0.01 /

#character(10)
&ICCD ICFile='ic_test_01.nc', OBFile='bc_test_02.nc' /


# Boundary Conditions:
#  VT%N_EDDY
#  IF (VT%N_EDDY>0) SYNTHETIC_EDDY_METHOD=.TRUE.
#
#&VENT MB='XMIN', SURF_ID='OPEN',N_EDDY=-1 /
#&VENT MB='XMAX', SURF_ID='OPEN',N_EDDY=-1 /

#&VENT MB='YMIN', SURF_ID='OPEN',N_EDDY=-1 /
#&VENT MB='YMAX', SURF_ID='OPEN',N_EDDY=-1 /


&VENT MB='ZMAX', SURF_ID='OPEN' /

#south - coupled
&VENT XB=0.,200.,0.,0.,0.,120.,SURF_ID='OPEN',N_EDDY=-1/

#north
&VENT XB=0.,200.,200.,200.,0.,120.,SURF_ID='OPEN',N_EDDY=-1/

#east
#&VENT XB=200.,200.,0.,200.,0.,120.,SURF_ID='OPEN'/

#west
#&VENT XB=0.,0.,0.,200.,0.,120.,SURF_ID='OPEN'/

&DUMP DT_PL3D=5, DT_HRR =0, SIG_FIGS=4, SIG_FIGS_EXP=2 , WRITE_XYZ=T /






#&MISC VERBOSE=T /




&TAIL /
